cases/221_bus_real_UK_case/flex_unit_50.txt
//Original 12 flexible units used in the main 221-bus case
New generator.g1 Bus1=bus_36048945_01.1 phases=1 kW=1 kvar=1  Model=3
New generator.g2 Bus1=bus_36049497_01.1 phases=1 kW=1 kvar=1  Model=3
New generator.g3 Bus1=bus_36067558_01.1 phases=1 kW=1 kvar=1  Model=3
New generator.g4 Bus1=bus_36041228_01.1 phases=1 kW=1 kvar=1  Model=3
New generator.g5 Bus1=bus_36049000_01.2 phases=1 kW=1 kvar=1  Model=3
New generator.g6 Bus1=bus_36049503_01.2 phases=1 kW=1 kvar=1  Model=3
New generator.g7 Bus1=bus_36067332_01.2 phases=1 kW=1 kvar=1  Model=3
New generator.g8 Bus1=bus_36040577_01.2 phases=1 kW=1 kvar=1  Model=3
New generator.g9 Bus1=bus_36049456_01.3 phases=1 kW=1 kvar=1  Model=3
New generator.g10 Bus1=bus_36049478_01.3 phases=1 kW=1 kvar=1  Model=3
New generator.g11 Bus1=bus_36067434_01.3 phases=1 kW=1 kvar=1  Model=3
New generator.g12 Bus1=bus_36041804_01.3 phases=1 kW=1 kvar=1  Model=3

//Additional units for flexibility analysis
New generator.g13 Bus1=bus_36049305.1 phases=1 kW=1 kvar=1  Model=3
New generator.g14 Bus1=bus_539393275.2 phases=1 kW=1 kvar=1  Model=3
New generator.g15 Bus1=bus_36041543_01.3 phases=1 kW=1 kvar=1  Model=3
New generator.g16 Bus1=bus_36079959.1 phases=1 kW=1 kvar=1  Model=3
New generator.g17 Bus1=bus_36049292.2 phases=1 kW=1 kvar=1  Model=3
New generator.g18 Bus1=bus_36041773.3 phases=1 kW=1 kvar=1  Model=3
New generator.g19 Bus1=bus_36049409_01.1 phases=1 kW=1 kvar=1  Model=3
New generator.g20 Bus1=bus_36048918_01.2 phases=1 kW=1 kvar=1  Model=3
New generator.g21 Bus1=bus_36048896.3 phases=1 kW=1 kvar=1  Model=3
New generator.g22 Bus1=bus_36041823.1 phases=1 kW=1 kvar=1  Model=3
New generator.g23 Bus1=bus_36067928.2 phases=1 kW=1 kvar=1  Model=3
New generator.g24 Bus1=bus_36041258_01.3 phases=1 kW=1 kvar=1  Model=3
New generator.g25 Bus1=bus_36048843.1 phases=1 kW=1 kvar=1  Model=3
New generator.g26 Bus1=bus_36061716_01.2 phases=1 kW=1 kvar=1  Model=3
New generator.g27 Bus1=bus_36041546.3 phases=1 kW=1 kvar=1  Model=3
New generator.g28 Bus1=bus_36041560_01.1 phases=1 kW=1 kvar=1  Model=3
New generator.g29 Bus1=bus_36049323.2 phases=1 kW=1 kvar=1  Model=3
New generator.g30 Bus1=bus_36049486_01.3 phases=1 kW=1 kvar=1  Model=3
New generator.g31 Bus1=bus_36040624.1 phases=1 kW=1 kvar=1  Model=3
New generator.g32 Bus1=bus_36048982_01.2 phases=1 kW=1 kvar=1  Model=3
New generator.g33 Bus1=bus_36041846.3 phases=1 kW=1 kvar=1  Model=3
New generator.g34 Bus1=bus_36041151.1 phases=1 kW=1 kvar=1  Model=3
New generator.g35 Bus1=bus_36041816.2 phases=1 kW=1 kvar=1  Model=3
New generator.g36 Bus1=bus_36048935_01.3 phases=1 kW=1 kvar=1  Model=3
New generator.g37 Bus1=bus_36067288.1 phases=1 kW=1 kvar=1  Model=3
New generator.g38 Bus1=bus_36052452.2 phases=1 kW=1 kvar=1  Model=3
New generator.g39 Bus1=bus_36052458.3 phases=1 kW=1 kvar=1  Model=3
New generator.g40 Bus1=bus_36040958.1 phases=1 kW=1 kvar=1  Model=3
New generator.g41 Bus1=bus_36041809.2 phases=1 kW=1 kvar=1  Model=3
New generator.g42 Bus1=bus_522225317.3 phases=1 kW=1 kvar=1  Model=3
New generator.g43 Bus1=bus_36061717.1 phases=1 kW=1 kvar=1  Model=3
New generator.g44 Bus1=bus_36082682.2 phases=1 kW=1 kvar=1  Model=3
New generator.g45 Bus1=bus_36079885_01.3 phases=1 kW=1 kvar=1  Model=3
New generator.g46 Bus1=bus_36041814.1 phases=1 kW=1 kvar=1  Model=3
New generator.g47 Bus1=bus_36059310.2 phases=1 kW=1 kvar=1  Model=3
New generator.g48 Bus1=bus_36061704.3 phases=1 kW=1 kvar=1  Model=3
New generator.g49 Bus1=bus_36048851.1 phases=1 kW=1 kvar=1  Model=3
New generator.g50 Bus1=bus_36052580.2 phases=1 kW=1 kvar=1  Model=3
